
     RDKit          3D

 27 29  0  0  0  0  0  0  0  0999 V2000
  -33.7645    8.0944   -0.2026 C   0  0  0  0  0  0  0  0  0  0  0  0
  -32.6956    7.7921    0.4274 N   0  0  0  0  0  0  0  0  0  0  0  0
  -34.3945    7.0777   -0.2333 C   0  0  0  0  0  0  0  0  0  0  0  0
  -33.8258    6.0419   -1.0140 C   0  0  0  0  0  0  0  0  0  0  0  0
  -34.5071    4.7445   -0.8482 C   0  0  0  0  0  0  0  0  0  0  0  0
  -34.0381    4.0644    0.1356 N   0  0  0  0  0  0  0  0  0  0  0  0
  -34.2680    4.0086   -1.9361 C   0  0  0  0  0  0  0  0  0  0  0  0
  -35.1409    3.7879   -2.6071 O   0  0  0  0  0  0  0  0  0  0  0  0
  -33.3144    3.7977   -2.1448 O   0  0  0  0  0  0  0  0  0  0  0  0
  -34.4616    9.0161    0.3373 C   0  0  0  0  0  0  0  0  0  0  0  0
  -35.2571    9.4911   -0.5742 C   0  0  0  0  0  0  0  0  0  0  0  0
  -34.6410    9.7876   -1.4619 O   0  0  0  0  0  0  0  0  0  0  0  0
  -35.9920    8.8411   -1.2084 C   0  0  0  0  0  0  0  0  0  0  0  0
  -35.3460   10.0189   -2.6260 C   0  0  0  0  0  0  0  0  0  0  0  0
  -36.3105    9.4689   -2.2863 C   0  0  0  0  0  0  0  0  0  0  0  0
  -36.9602    8.5963   -0.6151 O   0  0  0  0  0  0  0  0  0  0  0  0
  -34.5349    9.6709   -3.6437 N   0  0  0  0  0  0  0  0  0  0  0  0
  -34.7024    9.8585   -4.7900 C   0  0  0  0  0  0  0  0  0  0  0  0
  -33.5606    9.1145   -3.5484 C   0  0  0  0  0  0  0  0  0  0  0  0
  -35.4969   10.2944   -5.3273 N   0  0  0  0  0  0  0  0  0  0  0  0
  -33.7961    9.3564   -5.3801 C   0  0  0  0  0  0  0  0  0  0  0  0
  -33.0851    8.8830   -4.6259 N   0  0  0  0  0  0  0  0  0  0  0  0
  -35.5201   10.2690   -6.5266 C   0  0  0  0  0  0  0  0  0  0  0  0
  -33.8086    9.3820   -6.4628 C   0  0  0  0  0  0  0  0  0  0  0  0
  -34.7080    9.8643   -7.0326 N   0  0  0  0  0  0  0  0  0  0  0  0
  -33.0388    8.8807   -6.9080 N   0  0  0  0  0  0  0  0  0  0  0  0
  -37.2412   10.1235   -1.9654 O   0  0  0  0  0  0  0  0  0  0  0  0
  1  2  1  0
  1  3  1  0
  1 10  1  0
  3  4  1  0
  4  5  1  0
  5  6  1  0
  5  7  1  0
  7  8  2  0
  7  9  1  0
 10 11  1  0
 11 12  1  0
 11 13  1  0
 12 14  1  0
 13 15  1  0
 13 16  1  0
 14 15  1  0
 14 17  1  0
 15 27  1  0
 17 18  1  0
 17 19  1  0
 18 20  2  0
 18 21  1  0
 19 22  2  0
 20 23  1  0
 21 22  1  0
 21 24  2  0
 23 25  2  0
 24 25  1  0
 24 26  1  0
M  END
$$$$
