
     RDKit          3D

 27 29  0  0  0  0  0  0  0  0999 V2000
  -33.7745    8.0772   -0.2255 C   0  0  0  0  0  0  0  0  0  0  0  0
  -32.6822    7.7848    0.4151 N   0  0  0  0  0  0  0  0  0  0  0  0
  -34.4471    7.0077   -0.2686 C   0  0  0  0  0  0  0  0  0  0  0  0
  -33.9116    5.9874   -0.9689 C   0  0  0  0  0  0  0  0  0  0  0  0
  -34.5780    4.7136   -0.8331 C   0  0  0  0  0  0  0  0  0  0  0  0
  -34.1244    4.0827    0.0726 N   0  0  0  0  0  0  0  0  0  0  0  0
  -34.3754    3.9643   -1.8444 C   0  0  0  0  0  0  0  0  0  0  0  0
  -35.2506    3.7017   -2.5077 O   0  0  0  0  0  0  0  0  0  0  0  0
  -33.4201    3.7587   -2.0463 O   0  0  0  0  0  0  0  0  0  0  0  0
  -34.4532    9.0199    0.2978 C   0  0  0  0  0  0  0  0  0  0  0  0
  -35.2642    9.4717   -0.5803 C   0  0  0  0  0  0  0  0  0  0  0  0
  -34.6370    9.7791   -1.4706 O   0  0  0  0  0  0  0  0  0  0  0  0
  -36.0003    8.7943   -1.2148 C   0  0  0  0  0  0  0  0  0  0  0  0
  -35.3380   10.0275   -2.6093 C   0  0  0  0  0  0  0  0  0  0  0  0
  -36.3201    9.4625   -2.2561 C   0  0  0  0  0  0  0  0  0  0  0  0
  -36.9540    8.5438   -0.6431 O   0  0  0  0  0  0  0  0  0  0  0  0
  -34.5466    9.7419   -3.6043 N   0  0  0  0  0  0  0  0  0  0  0  0
  -34.7066    9.9212   -4.7707 C   0  0  0  0  0  0  0  0  0  0  0  0
  -33.5436    9.2082   -3.4938 C   0  0  0  0  0  0  0  0  0  0  0  0
  -35.4947   10.3198   -5.3158 N   0  0  0  0  0  0  0  0  0  0  0  0
  -33.7829    9.4849   -5.3786 C   0  0  0  0  0  0  0  0  0  0  0  0
  -33.0416    9.0115   -4.5927 N   0  0  0  0  0  0  0  0  0  0  0  0
  -35.5130   10.2978   -6.5143 C   0  0  0  0  0  0  0  0  0  0  0  0
  -33.8134    9.4604   -6.4572 C   0  0  0  0  0  0  0  0  0  0  0  0
  -34.7229    9.9049   -7.0146 N   0  0  0  0  0  0  0  0  0  0  0  0
  -33.0351    8.9117   -6.9192 N   0  0  0  0  0  0  0  0  0  0  0  0
  -37.2384   10.1005   -1.9772 O   0  0  0  0  0  0  0  0  0  0  0  0
  1  2  1  0
  1  3  1  0
  1 10  1  0
  3  4  1  0
  4  5  1  0
  5  6  1  0
  5  7  1  0
  7  8  2  0
  7  9  1  0
 10 11  1  0
 11 12  1  0
 11 13  1  0
 12 14  1  0
 13 15  1  0
 13 16  1  0
 14 15  1  0
 14 17  1  0
 15 27  1  0
 17 18  1  0
 17 19  1  0
 18 20  2  0
 18 21  1  0
 19 22  2  0
 20 23  1  0
 21 22  1  0
 21 24  2  0
 23 25  2  0
 24 25  1  0
 24 26  1  0
M  END
$$$$
